Version 4
SHEET 1 42168 13908
WIRE 7104 -3104 7072 -3104
WIRE 7280 -3104 7280 -3216
WIRE 7280 -3104 7104 -3104
WIRE 7296 -3104 7280 -3104
WIRE 7312 -3104 7296 -3104
WIRE 7488 -3104 7312 -3104
WIRE 7536 -3104 7488 -3104
WIRE 7664 -3104 7536 -3104
WIRE 7824 -3104 7664 -3104
WIRE 8128 -3104 7824 -3104
WIRE 8224 -3104 8128 -3104
WIRE 8592 -3104 8224 -3104
WIRE 8688 -3104 8592 -3104
WIRE 9056 -3104 8688 -3104
WIRE 9184 -3104 9056 -3104
WIRE 9664 -3104 9184 -3104
WIRE 10112 -3104 9664 -3104
WIRE 7072 -3072 7072 -3104
WIRE 7296 -3072 7296 -3104
WIRE 7536 -3072 7536 -3104
WIRE 7824 -3072 7824 -3104
WIRE 7104 -3024 7104 -3104
WIRE 7104 -3024 7072 -3024
WIRE 7312 -3024 7312 -3104
WIRE 7312 -3024 7296 -3024
WIRE 7488 -3024 7488 -3104
WIRE 7536 -3024 7488 -3024
WIRE 7664 -3024 7664 -3104
WIRE 7824 -3024 7664 -3024
WIRE 3488 -2992 3456 -2992
WIRE 3664 -2992 3664 -3104
WIRE 3664 -2992 3488 -2992
WIRE 3680 -2992 3664 -2992
WIRE 3696 -2992 3680 -2992
WIRE 3872 -2992 3696 -2992
WIRE 3920 -2992 3872 -2992
WIRE 4048 -2992 3920 -2992
WIRE 4208 -2992 4048 -2992
WIRE 4512 -2992 4208 -2992
WIRE 4608 -2992 4512 -2992
WIRE 4976 -2992 4608 -2992
WIRE 5072 -2992 4976 -2992
WIRE 5440 -2992 5072 -2992
WIRE 5568 -2992 5440 -2992
WIRE 3456 -2960 3456 -2992
WIRE 3680 -2960 3680 -2992
WIRE 3920 -2960 3920 -2992
WIRE 4208 -2960 4208 -2992
WIRE 7296 -2928 7296 -2976
WIRE 7328 -2928 7296 -2928
WIRE 7536 -2928 7536 -2976
WIRE 7536 -2928 7328 -2928
WIRE 3488 -2912 3488 -2992
WIRE 3488 -2912 3456 -2912
WIRE 3696 -2912 3696 -2992
WIRE 3696 -2912 3680 -2912
WIRE 3872 -2912 3872 -2992
WIRE 3920 -2912 3872 -2912
WIRE 4048 -2912 4048 -2992
WIRE 4208 -2912 4048 -2912
WIRE 8224 -2864 8224 -3104
WIRE 3680 -2816 3680 -2864
WIRE 3712 -2816 3680 -2816
WIRE 3920 -2816 3920 -2864
WIRE 3920 -2816 3712 -2816
WIRE 8128 -2816 8128 -3104
WIRE 8224 -2816 8128 -2816
WIRE 7328 -2800 7328 -2928
WIRE 8688 -2768 8688 -3104
WIRE 11040 -2768 11008 -2768
WIRE 11104 -2768 11104 -2848
WIRE 11104 -2768 11040 -2768
WIRE 11152 -2768 11104 -2768
WIRE 11200 -2768 11152 -2768
WIRE 4608 -2752 4608 -2992
WIRE 7328 -2752 7216 -2752
WIRE 9184 -2736 9184 -3104
WIRE 9664 -2736 9664 -3104
WIRE 9664 -2736 9536 -2736
WIRE 11008 -2736 11008 -2768
WIRE 11200 -2736 11200 -2768
WIRE 8592 -2720 8592 -3104
WIRE 8688 -2720 8592 -2720
WIRE 4512 -2704 4512 -2992
WIRE 4608 -2704 4512 -2704
WIRE 9664 -2704 9664 -2736
WIRE 3712 -2688 3712 -2816
WIRE 9056 -2688 9056 -3104
WIRE 9184 -2688 9056 -2688
WIRE 11040 -2688 11040 -2768
WIRE 11040 -2688 11008 -2688
WIRE 11152 -2688 11152 -2768
WIRE 11200 -2688 11152 -2688
WIRE 5072 -2656 5072 -2992
WIRE 9536 -2656 9536 -2736
WIRE 9664 -2656 9536 -2656
WIRE 3712 -2640 3600 -2640
WIRE 7072 -2640 7072 -2976
WIRE 7328 -2640 7328 -2704
WIRE 7328 -2640 7072 -2640
WIRE 5568 -2624 5568 -2992
WIRE 4976 -2608 4976 -2992
WIRE 5072 -2608 4976 -2608
WIRE 11008 -2608 11008 -2640
WIRE 11104 -2608 11008 -2608
WIRE 11200 -2608 11200 -2640
WIRE 11200 -2608 11104 -2608
WIRE 5440 -2576 5440 -2992
WIRE 5568 -2576 5440 -2576
WIRE 11104 -2576 11104 -2608
WIRE 11104 -2576 11008 -2576
WIRE 11200 -2576 11104 -2576
WIRE 7328 -2560 7328 -2640
WIRE 11008 -2560 11008 -2576
WIRE 11200 -2560 11200 -2576
WIRE 3456 -2528 3456 -2864
WIRE 3712 -2528 3712 -2592
WIRE 3712 -2528 3456 -2528
WIRE 7424 -2512 7328 -2512
WIRE 10112 -2496 10112 -3104
WIRE 10112 -2496 10016 -2496
WIRE 11440 -2496 11440 -2528
WIRE 11520 -2496 11440 -2496
WIRE 11440 -2480 11440 -2496
WIRE 3712 -2448 3712 -2528
WIRE 1664 -2432 1632 -2432
WIRE 1840 -2432 1840 -2544
WIRE 1840 -2432 1664 -2432
WIRE 1856 -2432 1840 -2432
WIRE 1872 -2432 1856 -2432
WIRE 2048 -2432 1872 -2432
WIRE 2096 -2432 2048 -2432
WIRE 2288 -2432 2096 -2432
WIRE 2384 -2432 2288 -2432
WIRE 2656 -2432 2384 -2432
WIRE 2784 -2432 2656 -2432
WIRE 11520 -2432 11520 -2496
WIRE 11520 -2432 11440 -2432
WIRE 10112 -2416 10112 -2496
WIRE 11008 -2416 11008 -2464
WIRE 11104 -2416 11008 -2416
WIRE 11200 -2416 11200 -2464
WIRE 11200 -2416 11104 -2416
WIRE 1632 -2400 1632 -2432
WIRE 1856 -2400 1856 -2432
WIRE 2096 -2400 2096 -2432
WIRE 2384 -2400 2384 -2432
WIRE 3808 -2400 3712 -2400
WIRE 11392 -2400 11328 -2400
WIRE 11648 -2384 11440 -2384
WIRE 7328 -2368 7328 -2464
WIRE 7824 -2368 7824 -2976
WIRE 7824 -2368 7328 -2368
WIRE 10016 -2368 10016 -2496
WIRE 10112 -2368 10016 -2368
WIRE 11104 -2368 11104 -2416
WIRE 11328 -2368 11328 -2400
WIRE 11328 -2368 11104 -2368
WIRE 11648 -2368 11648 -2384
WIRE 1664 -2352 1664 -2432
WIRE 1664 -2352 1632 -2352
WIRE 1872 -2352 1872 -2432
WIRE 1872 -2352 1856 -2352
WIRE 2048 -2352 2048 -2432
WIRE 2096 -2352 2048 -2352
WIRE 2288 -2352 2288 -2432
WIRE 2384 -2352 2288 -2352
WIRE 11472 -2336 11440 -2336
WIRE 11104 -2304 11104 -2368
WIRE 11104 -2304 11008 -2304
WIRE 11200 -2304 11104 -2304
WIRE 11328 -2304 11328 -2368
WIRE 11392 -2304 11328 -2304
WIRE 11008 -2288 11008 -2304
WIRE 11200 -2288 11200 -2304
WIRE 11472 -2288 11472 -2336
WIRE 11472 -2288 11440 -2288
WIRE 7328 -2272 7328 -2368
WIRE 1856 -2256 1856 -2304
WIRE 1888 -2256 1856 -2256
WIRE 2096 -2256 2096 -2304
WIRE 2096 -2256 1888 -2256
WIRE 3712 -2256 3712 -2352
WIRE 4208 -2256 4208 -2864
WIRE 4208 -2256 3712 -2256
WIRE 11440 -2256 11440 -2288
WIRE -1872 -2224 -1872 -2256
WIRE -1872 -2224 -1920 -2224
WIRE -1840 -2224 -1872 -2224
WIRE 7552 -2224 7328 -2224
WIRE -1872 -2192 -1872 -2224
WIRE -1872 -2192 -1936 -2192
WIRE -1776 -2192 -1872 -2192
WIRE 2784 -2192 2784 -2432
WIRE -1936 -2160 -1936 -2192
WIRE -1776 -2160 -1776 -2192
WIRE 3712 -2160 3712 -2256
WIRE 2656 -2144 2656 -2432
WIRE 2784 -2144 2656 -2144
WIRE 1888 -2128 1888 -2256
WIRE -1920 -2112 -1920 -2224
WIRE -1920 -2112 -1936 -2112
WIRE -1840 -2112 -1840 -2224
WIRE -1776 -2112 -1840 -2112
WIRE -1296 -2112 -1296 -2144
WIRE -1248 -2112 -1296 -2112
WIRE 3936 -2112 3712 -2112
WIRE -1296 -2096 -1296 -2112
WIRE 11008 -2096 11008 -2192
WIRE 11200 -2096 11200 -2192
WIRE -624 -2080 -624 -2128
WIRE -624 -2080 -688 -2080
WIRE -560 -2080 -624 -2080
WIRE 1888 -2080 1776 -2080
WIRE 7328 -2080 7328 -2176
WIRE 8224 -2080 8224 -2768
WIRE 8224 -2080 7328 -2080
WIRE -1936 -2048 -1936 -2064
WIRE -1872 -2048 -1936 -2048
WIRE -1776 -2048 -1776 -2064
WIRE -1776 -2048 -1872 -2048
WIRE -1440 -2048 -1760 -2048
WIRE -1248 -2048 -1248 -2112
WIRE -1248 -2048 -1296 -2048
WIRE -624 -2048 -624 -2080
WIRE -624 -2048 -720 -2048
WIRE -528 -2048 -624 -2048
WIRE 11040 -2048 11008 -2048
WIRE 11200 -2048 11152 -2048
WIRE -1872 -2016 -1872 -2048
WIRE -1760 -2016 -1760 -2048
WIRE -1760 -2016 -1872 -2016
WIRE -1344 -2016 -1408 -2016
WIRE -720 -2016 -720 -2048
WIRE -528 -2016 -528 -2048
WIRE 7328 -2016 7328 -2080
WIRE -1872 -2000 -1872 -2016
WIRE -1088 -2000 -1296 -2000
WIRE -1728 -1984 -1728 -2080
WIRE -1664 -1984 -1728 -1984
WIRE -1088 -1984 -1088 -2000
WIRE -1984 -1968 -1984 -2080
WIRE -1984 -1968 -2048 -1968
WIRE -1440 -1968 -1440 -2048
WIRE -1408 -1968 -1408 -2016
WIRE -1408 -1968 -1440 -1968
WIRE -688 -1968 -688 -2080
WIRE -688 -1968 -720 -1968
WIRE -560 -1968 -560 -2080
WIRE -528 -1968 -560 -1968
WIRE 1632 -1968 1632 -2304
WIRE 1888 -1968 1888 -2032
WIRE 1888 -1968 1632 -1968
WIRE 3712 -1968 3712 -2064
WIRE 4608 -1968 4608 -2656
WIRE 4608 -1968 3712 -1968
WIRE 7488 -1968 7328 -1968
WIRE 11008 -1968 11008 -2000
WIRE 11040 -1968 11040 -2048
WIRE 11040 -1968 11008 -1968
WIRE 11104 -1968 11040 -1968
WIRE 11152 -1968 11152 -2048
WIRE 11152 -1968 11104 -1968
WIRE 11200 -1968 11200 -2000
WIRE 11200 -1968 11152 -1968
WIRE -1264 -1952 -1296 -1952
WIRE -1728 -1920 -1728 -1984
WIRE -1728 -1920 -1824 -1920
WIRE -1408 -1920 -1408 -1968
WIRE -1344 -1920 -1408 -1920
WIRE 3712 -1904 3712 -1968
WIRE -1296 -1888 -1296 -1904
WIRE -1264 -1888 -1264 -1952
WIRE -1264 -1888 -1296 -1888
WIRE -720 -1888 -720 -1920
WIRE -624 -1888 -720 -1888
WIRE -528 -1888 -528 -1920
WIRE -528 -1888 -624 -1888
WIRE 1888 -1888 1888 -1968
WIRE -1872 -1872 -1872 -1904
WIRE 912 -1872 880 -1872
WIRE 960 -1872 960 -1920
WIRE 960 -1872 912 -1872
WIRE 1008 -1872 960 -1872
WIRE 1040 -1872 1008 -1872
WIRE 11104 -1872 11104 -1968
WIRE -1296 -1856 -1296 -1888
WIRE -624 -1856 -624 -1888
WIRE -624 -1856 -720 -1856
WIRE -528 -1856 -624 -1856
WIRE 3872 -1856 3712 -1856
WIRE -720 -1840 -720 -1856
WIRE -528 -1840 -528 -1856
WIRE 1984 -1840 1888 -1840
WIRE -1840 -1824 -1872 -1824
WIRE 7328 -1824 7328 -1920
WIRE 8688 -1824 8688 -2672
WIRE 8688 -1824 7328 -1824
WIRE 880 -1808 880 -1872
WIRE 1040 -1808 1040 -1872
WIRE -1984 -1792 -1984 -1968
WIRE -1920 -1792 -1984 -1792
WIRE -720 -1792 -736 -1792
WIRE -656 -1792 -720 -1792
WIRE -528 -1792 -608 -1792
WIRE -256 -1792 -256 -1824
WIRE -176 -1792 -256 -1792
WIRE -656 -1776 -656 -1792
WIRE -608 -1776 -608 -1792
WIRE -256 -1776 -256 -1792
WIRE 7328 -1776 7328 -1824
WIRE -1872 -1760 -1872 -1776
WIRE -1840 -1760 -1840 -1824
WIRE -1840 -1760 -1872 -1760
WIRE 912 -1760 912 -1872
WIRE 912 -1760 880 -1760
WIRE 1008 -1760 1008 -1872
WIRE 1040 -1760 1008 -1760
WIRE -1872 -1728 -1872 -1760
WIRE -176 -1728 -176 -1792
WIRE -176 -1728 -256 -1728
WIRE 7552 -1728 7328 -1728
WIRE 3712 -1712 3712 -1808
WIRE 5072 -1712 5072 -2560
WIRE 5072 -1712 3712 -1712
WIRE -720 -1696 -720 -1744
WIRE -624 -1696 -720 -1696
WIRE -528 -1696 -528 -1744
WIRE -528 -1696 -624 -1696
WIRE -304 -1696 -368 -1696
WIRE 1888 -1696 1888 -1792
WIRE 2384 -1696 2384 -2304
WIRE 2384 -1696 1888 -1696
WIRE -48 -1680 -256 -1680
WIRE -48 -1664 -48 -1680
WIRE 880 -1664 880 -1712
WIRE 960 -1664 880 -1664
WIRE 1040 -1664 1040 -1712
WIRE 1040 -1664 960 -1664
WIRE 3712 -1664 3712 -1712
WIRE -2912 -1648 -2912 -1680
WIRE -2832 -1648 -2912 -1648
WIRE -624 -1648 -624 -1696
WIRE -368 -1648 -368 -1696
WIRE -368 -1648 -624 -1648
WIRE 1280 -1648 1280 -1680
WIRE 1360 -1648 1280 -1648
WIRE -2912 -1632 -2912 -1648
WIRE -224 -1632 -256 -1632
WIRE 1280 -1632 1280 -1648
WIRE 960 -1616 960 -1664
WIRE 3936 -1616 3712 -1616
WIRE -368 -1600 -368 -1648
WIRE -304 -1600 -368 -1600
WIRE 1888 -1600 1888 -1696
WIRE -2832 -1584 -2832 -1648
WIRE -2832 -1584 -2912 -1584
WIRE -624 -1584 -624 -1648
WIRE -624 -1584 -720 -1584
WIRE -528 -1584 -624 -1584
WIRE -224 -1584 -224 -1632
WIRE -224 -1584 -256 -1584
WIRE 1360 -1584 1360 -1648
WIRE 1360 -1584 1280 -1584
WIRE -720 -1568 -720 -1584
WIRE -528 -1568 -528 -1584
WIRE 1072 -1568 960 -1568
WIRE 7328 -1568 7328 -1680
WIRE 9184 -1568 9184 -2640
WIRE 9184 -1568 7328 -1568
WIRE -2960 -1552 -3024 -1552
WIRE -256 -1552 -256 -1584
WIRE 1232 -1552 1168 -1552
WIRE 2080 -1552 1888 -1552
WIRE -2704 -1536 -2912 -1536
WIRE 1488 -1536 1280 -1536
WIRE -2704 -1520 -2704 -1536
WIRE 1488 -1520 1488 -1536
WIRE 7328 -1504 7328 -1568
WIRE -3024 -1488 -3024 -1552
WIRE -3024 -1488 -3104 -1488
WIRE -2880 -1488 -2912 -1488
WIRE 960 -1488 960 -1520
WIRE 1168 -1488 1168 -1552
WIRE 1168 -1488 960 -1488
WIRE 1312 -1488 1280 -1488
WIRE 32 -1472 -32 -1472
WIRE 64 -1472 64 -1552
WIRE 64 -1472 32 -1472
WIRE 128 -1472 64 -1472
WIRE 160 -1472 128 -1472
WIRE -3024 -1456 -3024 -1488
WIRE -2960 -1456 -3024 -1456
WIRE 1168 -1456 1168 -1488
WIRE 1232 -1456 1168 -1456
WIRE 3712 -1456 3712 -1568
WIRE 5568 -1456 5568 -2528
WIRE 5568 -1456 3712 -1456
WIRE 7472 -1456 7328 -1456
WIRE -2880 -1440 -2880 -1488
WIRE -2880 -1440 -2912 -1440
WIRE -2320 -1440 -2320 -1488
WIRE -2192 -1440 -2320 -1440
WIRE -32 -1440 -32 -1472
WIRE 160 -1440 160 -1472
WIRE 960 -1440 960 -1488
WIRE 960 -1440 880 -1440
WIRE 1056 -1440 960 -1440
WIRE 1312 -1440 1312 -1488
WIRE 1312 -1440 1280 -1440
WIRE -2912 -1408 -2912 -1440
WIRE 880 -1408 880 -1440
WIRE 1280 -1408 1280 -1440
WIRE 1888 -1408 1888 -1504
WIRE 2784 -1408 2784 -2096
WIRE 2784 -1408 1888 -1408
WIRE 32 -1392 32 -1472
WIRE 32 -1392 -32 -1392
WIRE 128 -1392 128 -1472
WIRE 160 -1392 128 -1392
WIRE 176 -1392 160 -1392
WIRE 3712 -1392 3712 -1456
WIRE -2320 -1376 -2320 -1440
WIRE -720 -1376 -720 -1472
WIRE -528 -1376 -528 -1472
WIRE 3152 -1360 3152 -1392
WIRE 3232 -1360 3152 -1360
WIRE 5792 -1360 5792 -1392
WIRE 5872 -1360 5792 -1360
WIRE 1888 -1344 1888 -1408
WIRE 3152 -1344 3152 -1360
WIRE 3856 -1344 3712 -1344
WIRE 5792 -1344 5792 -1360
WIRE 11056 -1344 11024 -1344
WIRE 11120 -1344 11120 -1424
WIRE 11120 -1344 11056 -1344
WIRE 11184 -1344 11120 -1344
WIRE 11216 -1344 11184 -1344
WIRE -2192 -1328 -2192 -1440
WIRE -2192 -1328 -2320 -1328
WIRE -688 -1328 -720 -1328
WIRE -528 -1328 -576 -1328
WIRE 1056 -1328 1056 -1440
WIRE 7328 -1328 7328 -1408
WIRE 9664 -1328 9664 -2608
WIRE 9664 -1328 7328 -1328
WIRE -32 -1312 -32 -1344
WIRE 64 -1312 -32 -1312
WIRE 160 -1312 160 -1344
WIRE 160 -1312 64 -1312
WIRE 11024 -1312 11024 -1344
WIRE 11216 -1312 11216 -1344
WIRE -2368 -1296 -2432 -1296
WIRE 2064 -1296 1888 -1296
WIRE 3232 -1296 3232 -1360
WIRE 3232 -1296 3152 -1296
WIRE 5872 -1296 5872 -1360
WIRE 5872 -1296 5792 -1296
WIRE -2112 -1280 -2320 -1280
WIRE 64 -1280 64 -1312
WIRE 64 -1280 -32 -1280
WIRE 160 -1280 64 -1280
WIRE -2112 -1264 -2112 -1280
WIRE -32 -1264 -32 -1280
WIRE 160 -1264 160 -1280
WIRE 3104 -1264 3040 -1264
WIRE 5744 -1264 5680 -1264
WIRE 11056 -1264 11056 -1344
WIRE 11056 -1264 11024 -1264
WIRE 11184 -1264 11184 -1344
WIRE 11216 -1264 11184 -1264
WIRE -2432 -1248 -2432 -1296
WIRE -2432 -1248 -2480 -1248
WIRE -720 -1248 -720 -1280
WIRE -688 -1248 -688 -1328
WIRE -688 -1248 -720 -1248
WIRE -624 -1248 -688 -1248
WIRE -576 -1248 -576 -1328
WIRE -576 -1248 -624 -1248
WIRE -528 -1248 -528 -1280
WIRE -528 -1248 -576 -1248
WIRE 3360 -1248 3152 -1248
WIRE 6000 -1248 5792 -1248
WIRE -2272 -1232 -2320 -1232
WIRE -1888 -1232 -1888 -1264
WIRE -1888 -1232 -1936 -1232
WIRE -1840 -1232 -1888 -1232
WIRE 432 -1232 432 -1280
WIRE 512 -1232 432 -1232
WIRE 880 -1232 880 -1312
WIRE 3360 -1232 3360 -1248
WIRE 6000 -1232 6000 -1248
WIRE 7328 -1232 7328 -1328
WIRE 1888 -1216 1888 -1248
WIRE 3040 -1216 3040 -1264
WIRE 3040 -1216 1888 -1216
WIRE 3712 -1216 3712 -1296
WIRE 5680 -1216 5680 -1264
WIRE 5680 -1216 3712 -1216
WIRE -2432 -1200 -2432 -1248
WIRE -2368 -1200 -2432 -1200
WIRE -1888 -1200 -1888 -1232
WIRE -1888 -1200 -1952 -1200
WIRE -1792 -1200 -1888 -1200
WIRE 3184 -1200 3152 -1200
WIRE 5824 -1200 5792 -1200
WIRE 432 -1184 432 -1232
WIRE 912 -1184 880 -1184
WIRE 7488 -1184 7328 -1184
WIRE 11024 -1184 11024 -1216
WIRE 11120 -1184 11024 -1184
WIRE 11216 -1184 11216 -1216
WIRE 11216 -1184 11120 -1184
WIRE -2320 -1168 -2320 -1184
WIRE -2272 -1168 -2272 -1232
WIRE -2272 -1168 -2320 -1168
WIRE -1952 -1168 -1952 -1200
WIRE -1792 -1168 -1792 -1200
WIRE 3040 -1168 3040 -1216
WIRE 3104 -1168 3040 -1168
WIRE 5680 -1168 5680 -1216
WIRE 5744 -1168 5680 -1168
WIRE -624 -1152 -624 -1248
WIRE 3184 -1152 3184 -1200
WIRE 3184 -1152 3152 -1152
WIRE 5824 -1152 5824 -1200
WIRE 5824 -1152 5792 -1152
WIRE 11120 -1152 11120 -1184
WIRE 11120 -1152 11024 -1152
WIRE 11216 -1152 11120 -1152
WIRE -2320 -1136 -2320 -1168
WIRE 512 -1136 512 -1232
WIRE 512 -1136 432 -1136
WIRE 11024 -1136 11024 -1152
WIRE 11216 -1136 11216 -1152
WIRE -1936 -1120 -1936 -1232
WIRE -1936 -1120 -1952 -1120
WIRE -1840 -1120 -1840 -1232
WIRE -1792 -1120 -1840 -1120
WIRE -1312 -1120 -1312 -1152
WIRE -1264 -1120 -1312 -1120
WIRE -32 -1120 -32 -1168
WIRE 64 -1120 -32 -1120
WIRE 160 -1120 160 -1168
WIRE 160 -1120 64 -1120
WIRE 3152 -1120 3152 -1152
WIRE 5792 -1120 5792 -1152
WIRE -1312 -1104 -1312 -1120
WIRE 384 -1104 320 -1104
WIRE 880 -1104 880 -1136
WIRE 912 -1104 912 -1184
WIRE 912 -1104 880 -1104
WIRE 976 -1104 912 -1104
WIRE 1056 -1104 1056 -1232
WIRE 1056 -1104 976 -1104
WIRE -2912 -1088 -2912 -1120
WIRE -2832 -1088 -2912 -1088
WIRE 640 -1088 432 -1088
WIRE -2912 -1072 -2912 -1088
WIRE 640 -1072 640 -1088
WIRE 7328 -1072 7328 -1136
WIRE 10112 -1072 10112 -2320
WIRE 10112 -1072 7328 -1072
WIRE 11424 -1072 11424 -1104
WIRE 11472 -1072 11424 -1072
WIRE -1952 -1056 -1952 -1072
WIRE -1888 -1056 -1952 -1056
WIRE -1792 -1056 -1792 -1072
WIRE -1792 -1056 -1888 -1056
WIRE -1456 -1056 -1776 -1056
WIRE -1264 -1056 -1264 -1120
WIRE -1264 -1056 -1312 -1056
WIRE 64 -1056 64 -1120
WIRE 320 -1056 320 -1104
WIRE 320 -1056 64 -1056
WIRE 976 -1056 976 -1104
WIRE 3680 -1056 3392 -1056
WIRE 3712 -1056 3712 -1216
WIRE 3712 -1056 3680 -1056
WIRE 3984 -1056 3712 -1056
WIRE 4304 -1056 3984 -1056
WIRE 4688 -1056 4304 -1056
WIRE 5024 -1056 4688 -1056
WIRE 5408 -1056 5024 -1056
WIRE 11424 -1056 11424 -1072
WIRE 512 -1040 432 -1040
WIRE -2832 -1024 -2832 -1088
WIRE -2832 -1024 -2912 -1024
WIRE -1888 -1024 -1888 -1056
WIRE -1776 -1024 -1776 -1056
WIRE -1776 -1024 -1888 -1024
WIRE -1360 -1024 -1424 -1024
WIRE -1888 -1008 -1888 -1024
WIRE -1104 -1008 -1312 -1008
WIRE 64 -1008 64 -1056
WIRE 64 -1008 -32 -1008
WIRE 160 -1008 64 -1008
WIRE 320 -1008 320 -1056
WIRE 384 -1008 320 -1008
WIRE 1824 -1008 1536 -1008
WIRE 1888 -1008 1888 -1216
WIRE 1888 -1008 1824 -1008
WIRE 2128 -1008 1888 -1008
WIRE 2448 -1008 2128 -1008
WIRE 2832 -1008 2448 -1008
WIRE 3392 -1008 3392 -1056
WIRE 7328 -1008 7328 -1072
WIRE 11472 -1008 11472 -1072
WIRE 11472 -1008 11424 -1008
WIRE -2960 -992 -3024 -992
WIRE -1744 -992 -1744 -1088
WIRE -1680 -992 -1744 -992
WIRE -1104 -992 -1104 -1008
WIRE -32 -992 -32 -1008
WIRE 160 -992 160 -1008
WIRE 10432 -992 10432 -1024
WIRE 10512 -992 10432 -992
WIRE 11024 -992 11024 -1040
WIRE 11120 -992 11024 -992
WIRE 11216 -992 11216 -1040
WIRE 11216 -992 11120 -992
WIRE -2704 -976 -2912 -976
WIRE -2000 -976 -2000 -1088
WIRE -2000 -976 -2064 -976
WIRE -1456 -976 -1456 -1056
WIRE -1424 -976 -1424 -1024
WIRE -1424 -976 -1456 -976
WIRE 432 -976 432 -992
WIRE 512 -976 512 -1040
WIRE 512 -976 432 -976
WIRE 10432 -976 10432 -992
WIRE 11376 -976 11312 -976
WIRE -2704 -960 -2704 -976
WIRE -1248 -960 -1312 -960
WIRE 1536 -960 1536 -1008
WIRE 7504 -960 7328 -960
WIRE 11632 -960 11424 -960
WIRE 11632 -944 11632 -960
WIRE -3024 -928 -3024 -992
WIRE -3024 -928 -3104 -928
WIRE -2880 -928 -2912 -928
WIRE -1744 -928 -1744 -992
WIRE -1744 -928 -1840 -928
WIRE -1424 -928 -1424 -976
WIRE -1360 -928 -1424 -928
WIRE 10512 -928 10512 -992
WIRE 10512 -928 10432 -928
WIRE 11120 -912 11120 -992
WIRE 11312 -912 11312 -976
WIRE 11312 -912 11120 -912
WIRE 11472 -912 11424 -912
WIRE -3024 -896 -3024 -928
WIRE -2960 -896 -3024 -896
WIRE -1312 -896 -1312 -912
WIRE -1248 -896 -1248 -960
WIRE -1248 -896 -1312 -896
WIRE 432 -896 432 -976
WIRE 10384 -896 10320 -896
WIRE -2880 -880 -2880 -928
WIRE -2880 -880 -2912 -880
WIRE -1888 -880 -1888 -912
WIRE 3680 -880 3680 -1056
WIRE 10640 -880 10432 -880
WIRE 11120 -880 11120 -912
WIRE 11120 -880 11024 -880
WIRE 11216 -880 11120 -880
WIRE 11312 -880 11312 -912
WIRE 11376 -880 11312 -880
WIRE -1312 -864 -1312 -896
WIRE 10640 -864 10640 -880
WIRE 11024 -864 11024 -880
WIRE 11216 -864 11216 -880
WIRE -2912 -848 -2912 -880
WIRE -1856 -832 -1888 -832
WIRE 1824 -832 1824 -1008
WIRE 7328 -832 7328 -912
WIRE 10320 -832 10320 -896
WIRE 10320 -832 7328 -832
WIRE 10464 -832 10432 -832
WIRE 11424 -832 11424 -864
WIRE 11472 -832 11472 -912
WIRE 11472 -832 11424 -832
WIRE -2000 -800 -2000 -976
WIRE -1936 -800 -2000 -800
WIRE -32 -800 -32 -896
WIRE 160 -800 160 -896
WIRE 10320 -800 10320 -832
WIRE 10384 -800 10320 -800
WIRE 11424 -800 11424 -832
WIRE 4688 -784 4688 -1056
WIRE 10464 -784 10464 -832
WIRE 10464 -784 10432 -784
WIRE -1888 -768 -1888 -784
WIRE -1856 -768 -1856 -832
WIRE -1856 -768 -1888 -768
WIRE 3984 -768 3984 -1056
WIRE 4304 -768 4304 -1056
WIRE -672 -752 -720 -752
WIRE -624 -752 -624 -832
WIRE -624 -752 -672 -752
WIRE -560 -752 -624 -752
WIRE -528 -752 -560 -752
WIRE 16 -752 -32 -752
WIRE 160 -752 96 -752
WIRE 5024 -752 5024 -1056
WIRE 10432 -752 10432 -784
WIRE -1888 -736 -1888 -768
WIRE 2832 -736 2832 -1008
WIRE 3392 -736 3392 -912
WIRE -720 -720 -720 -752
WIRE -528 -720 -528 -752
WIRE 2128 -720 2128 -1008
WIRE 2448 -720 2448 -1008
WIRE 7280 -704 6992 -704
WIRE 7328 -704 7328 -832
WIRE 7328 -704 7280 -704
WIRE 7584 -704 7328 -704
WIRE 7904 -704 7584 -704
WIRE 8288 -704 7904 -704
WIRE 8624 -704 8288 -704
WIRE 9008 -704 8624 -704
WIRE 9584 -704 9008 -704
WIRE 10000 -704 9584 -704
WIRE 1536 -688 1536 -864
WIRE -672 -672 -672 -752
WIRE -672 -672 -720 -672
WIRE -560 -672 -560 -752
WIRE -528 -672 -560 -672
WIRE -32 -672 -32 -704
WIRE 16 -672 16 -752
WIRE 16 -672 -32 -672
WIRE 64 -672 16 -672
WIRE 96 -672 96 -752
WIRE 96 -672 64 -672
WIRE 160 -672 160 -704
WIRE 160 -672 96 -672
WIRE 11024 -672 11024 -768
WIRE 11216 -672 11216 -768
WIRE 6992 -656 6992 -704
WIRE 480 -640 480 -672
WIRE 560 -640 480 -640
WIRE 11088 -624 11024 -624
WIRE 11216 -624 11168 -624
WIRE 480 -608 480 -640
WIRE -2400 -592 -2400 -688
WIRE -2256 -592 -2400 -592
WIRE -720 -592 -720 -624
WIRE -624 -592 -720 -592
WIRE -528 -592 -528 -624
WIRE -528 -592 -624 -592
WIRE 64 -576 64 -672
WIRE 3392 -576 3392 -640
WIRE 3632 -576 3392 -576
WIRE 3680 -576 3680 -784
WIRE 3680 -576 3632 -576
WIRE -624 -560 -624 -592
WIRE -624 -560 -720 -560
WIRE -528 -560 -624 -560
WIRE 560 -560 560 -640
WIRE 560 -560 480 -560
WIRE -2400 -544 -2400 -592
WIRE -720 -544 -720 -560
WIRE -528 -544 -528 -560
WIRE 11024 -544 11024 -576
WIRE 11088 -544 11088 -624
WIRE 11088 -544 11024 -544
WIRE 11120 -544 11088 -544
WIRE 11168 -544 11168 -624
WIRE 11168 -544 11120 -544
WIRE 11216 -544 11216 -576
WIRE 11216 -544 11168 -544
WIRE 432 -528 368 -528
WIRE 1536 -528 1536 -592
WIRE 1776 -528 1536 -528
WIRE 1824 -528 1824 -736
WIRE 1824 -528 1776 -528
WIRE 3632 -528 3632 -576
WIRE 7280 -528 7280 -704
WIRE 688 -512 480 -512
WIRE -2256 -496 -2256 -592
WIRE -2256 -496 -2400 -496
WIRE -672 -496 -720 -496
WIRE -528 -496 -576 -496
WIRE 688 -496 688 -512
WIRE -576 -480 -576 -496
WIRE -192 -480 -192 -512
WIRE -144 -480 -192 -480
WIRE 368 -480 368 -528
WIRE 368 -480 336 -480
WIRE 1776 -480 1776 -528
WIRE -2448 -464 -2512 -464
WIRE -192 -464 -192 -480
WIRE 544 -464 480 -464
WIRE -2192 -448 -2400 -448
WIRE 5408 -448 5408 -1056
WIRE 11120 -448 11120 -544
WIRE -2192 -432 -2192 -448
WIRE 368 -432 368 -480
WIRE 432 -432 368 -432
WIRE 8288 -432 8288 -704
WIRE -2848 -416 -2848 -448
WIRE -2800 -416 -2848 -416
WIRE -2512 -416 -2512 -464
WIRE -2512 -416 -2544 -416
WIRE -144 -416 -144 -480
WIRE -144 -416 -192 -416
WIRE 7584 -416 7584 -704
WIRE 7904 -416 7904 -704
WIRE -2848 -400 -2848 -416
WIRE -2304 -400 -2400 -400
WIRE -720 -400 -720 -448
WIRE -624 -400 -720 -400
WIRE -528 -400 -528 -448
WIRE -528 -400 -624 -400
WIRE 8624 -400 8624 -704
WIRE -240 -384 -304 -384
WIRE 480 -384 480 -416
WIRE 544 -384 544 -464
WIRE 544 -384 480 -384
WIRE 6992 -384 6992 -560
WIRE -2512 -368 -2512 -416
WIRE -2448 -368 -2512 -368
WIRE 16 -368 -192 -368
WIRE 3632 -368 3632 -432
WIRE 3712 -368 3632 -368
WIRE 3984 -368 3984 -672
WIRE 3984 -368 3712 -368
WIRE -2800 -352 -2800 -416
WIRE -2800 -352 -2848 -352
WIRE 16 -352 16 -368
WIRE 480 -352 480 -384
WIRE -624 -336 -624 -400
WIRE -304 -336 -304 -384
WIRE -304 -336 -624 -336
WIRE -2896 -320 -2960 -320
WIRE -2400 -320 -2400 -352
WIRE -2304 -320 -2304 -400
WIRE -2304 -320 -2400 -320
WIRE -144 -320 -192 -320
WIRE 1776 -320 1776 -384
WIRE 1856 -320 1776 -320
WIRE 2128 -320 2128 -624
WIRE 2128 -320 1856 -320
WIRE -2640 -304 -2848 -304
WIRE -2640 -288 -2640 -304
WIRE -624 -288 -624 -336
WIRE -624 -288 -720 -288
WIRE -528 -288 -624 -288
WIRE -304 -288 -304 -336
WIRE -240 -288 -304 -288
WIRE -2960 -272 -2960 -320
WIRE -2960 -272 -3040 -272
WIRE -2400 -272 -2400 -320
WIRE -720 -272 -720 -288
WIRE -528 -272 -528 -288
WIRE -2800 -256 -2848 -256
WIRE -192 -240 -192 -272
WIRE -144 -240 -144 -320
WIRE -144 -240 -192 -240
WIRE 3712 -240 3712 -368
WIRE -2960 -224 -2960 -272
WIRE -2896 -224 -2960 -224
WIRE 6992 -224 6992 -288
WIRE 7232 -224 6992 -224
WIRE 7280 -224 7280 -432
WIRE 7280 -224 7232 -224
WIRE -192 -208 -192 -240
WIRE 1856 -192 1856 -320
WIRE -2848 -176 -2848 -208
WIRE -2800 -176 -2800 -256
WIRE -2800 -176 -2848 -176
WIRE -1888 -176 -1888 -208
WIRE -1888 -176 -1936 -176
WIRE -1824 -176 -1888 -176
WIRE 7232 -176 7232 -224
WIRE -2848 -144 -2848 -176
WIRE -1888 -144 -1888 -176
WIRE -1888 -144 -1952 -144
WIRE -1792 -144 -1888 -144
WIRE 9584 -144 9584 -704
WIRE -1952 -112 -1952 -144
WIRE -1792 -112 -1792 -144
WIRE 9008 -96 9008 -704
WIRE -720 -80 -720 -176
WIRE -528 -80 -528 -176
WIRE -1936 -64 -1936 -176
WIRE -1936 -64 -1952 -64
WIRE -1824 -64 -1824 -176
WIRE -1792 -64 -1824 -64
WIRE -1312 -64 -1312 -96
WIRE -1264 -64 -1312 -64
WIRE -1312 -48 -1312 -64
WIRE -656 -32 -720 -32
WIRE -528 -32 -576 -32
WIRE 848 -16 816 -16
WIRE 1024 -16 1024 -128
WIRE 1024 -16 848 -16
WIRE 1040 -16 1024 -16
WIRE 1056 -16 1040 -16
WIRE 1232 -16 1056 -16
WIRE 1280 -16 1232 -16
WIRE 7232 -16 7232 -80
WIRE 7312 -16 7232 -16
WIRE 7584 -16 7584 -320
WIRE 7584 -16 7312 -16
WIRE -1952 0 -1952 -16
WIRE -1888 0 -1952 0
WIRE -1792 0 -1792 -16
WIRE -1792 0 -1888 0
WIRE -1456 0 -1776 0
WIRE -1264 0 -1264 -64
WIRE -1264 0 -1312 0
WIRE 64 0 48 0
WIRE 144 0 144 -80
WIRE 144 0 64 0
WIRE 208 0 144 0
WIRE 240 0 208 0
WIRE 3712 0 3712 -144
WIRE 4304 0 4304 -672
WIRE 4304 0 3712 0
WIRE 816 16 816 -16
WIRE 1040 16 1040 -16
WIRE 1280 16 1280 -16
WIRE -1888 32 -1888 0
WIRE -1776 32 -1776 0
WIRE -1776 32 -1888 32
WIRE -1360 32 -1424 32
WIRE -720 32 -720 16
WIRE -656 32 -656 -32
WIRE -656 32 -720 32
WIRE 48 32 48 0
WIRE 240 32 240 0
WIRE -1888 48 -1888 32
WIRE -1104 48 -1312 48
WIRE -720 48 -720 32
WIRE -624 48 -720 48
WIRE -576 48 -576 -32
WIRE -576 48 -624 48
WIRE -528 48 -528 16
WIRE -528 48 -576 48
WIRE 1856 48 1856 -96
WIRE 2448 48 2448 -624
WIRE 2448 48 1856 48
WIRE -1744 64 -1744 -32
WIRE -1680 64 -1744 64
WIRE -1104 64 -1104 48
WIRE 848 64 848 -16
WIRE 848 64 816 64
WIRE 1056 64 1056 -16
WIRE 1056 64 1040 64
WIRE 1232 64 1232 -16
WIRE 1280 64 1232 64
WIRE -2000 80 -2000 -32
WIRE -2000 80 -2064 80
WIRE -1456 80 -1456 0
WIRE -1424 80 -1424 32
WIRE -1424 80 -1456 80
WIRE 64 80 64 0
WIRE 64 80 48 80
WIRE 208 80 208 0
WIRE 240 80 208 80
WIRE -1248 96 -1312 96
WIRE 3712 112 3712 0
WIRE 7312 112 7312 -16
WIRE -1744 128 -1744 64
WIRE -1744 128 -1840 128
WIRE -1424 128 -1424 80
WIRE -1360 128 -1424 128
WIRE -624 144 -624 48
WIRE -1312 160 -1312 144
WIRE -1248 160 -1248 96
WIRE -1248 160 -1312 160
WIRE 48 160 48 128
WIRE 144 160 48 160
WIRE 240 160 240 128
WIRE 240 160 144 160
WIRE 1040 160 1040 112
WIRE 1072 160 1040 160
WIRE 1280 160 1280 112
WIRE 1280 160 1072 160
WIRE 1856 160 1856 48
WIRE 11120 160 11056 160
WIRE 11152 160 11152 80
WIRE 11152 160 11120 160
WIRE 11216 160 11152 160
WIRE 11248 160 11216 160
WIRE -1888 176 -1888 144
WIRE 144 192 144 160
WIRE 144 192 48 192
WIRE 240 192 144 192
WIRE 10000 192 10000 -704
WIRE 11056 192 11056 160
WIRE 11248 192 11248 160
WIRE -2368 208 -2368 160
WIRE -2288 208 -2368 208
WIRE -1312 208 -1312 160
WIRE 48 208 48 192
WIRE 240 208 240 192
WIRE 1984 208 1856 208
WIRE -2368 224 -2368 208
WIRE -1824 224 -1888 224
WIRE 512 224 512 176
WIRE 576 224 512 224
WIRE 11120 240 11120 160
WIRE 11120 240 11056 240
WIRE 11216 240 11216 160
WIRE 11248 240 11216 240
WIRE -2000 256 -2000 80
WIRE -1936 256 -2000 256
WIRE -2288 272 -2288 208
WIRE -2288 272 -2368 272
WIRE -1888 288 -1888 272
WIRE -1824 288 -1824 224
WIRE -1824 288 -1888 288
WIRE 512 288 512 224
WIRE 1072 288 1072 160
WIRE -2416 304 -2480 304
WIRE 3712 304 3712 208
WIRE 3728 304 3712 304
WIRE 4688 304 4688 -688
WIRE 4688 304 3728 304
WIRE -2816 320 -2816 288
WIRE -2752 320 -2816 320
WIRE -2160 320 -2368 320
WIRE -1888 320 -1888 288
WIRE 11056 320 11056 288
WIRE 11152 320 11056 320
WIRE 11248 320 11248 288
WIRE 11248 320 11152 320
WIRE -2160 336 -2160 320
WIRE 576 336 576 224
WIRE 576 336 512 336
WIRE 1072 336 960 336
WIRE -2480 352 -2480 304
WIRE -2480 352 -2528 352
WIRE 48 352 48 304
WIRE 144 352 48 352
WIRE 240 352 240 304
WIRE 240 352 144 352
WIRE 1856 352 1856 256
WIRE 1984 352 1984 208
WIRE 1984 352 1856 352
WIRE 2304 352 1984 352
WIRE 2832 352 2832 -640
WIRE 2832 352 2304 352
WIRE 7312 352 7312 208
WIRE 7904 352 7904 -320
WIRE 7904 352 7312 352
WIRE 11152 352 11152 320
WIRE 11152 352 11056 352
WIRE 11248 352 11152 352
WIRE -2816 368 -2816 320
WIRE -2272 368 -2368 368
WIRE 464 368 400 368
WIRE 11056 368 11056 352
WIRE 11248 368 11248 352
WIRE 720 384 512 384
WIRE -2480 400 -2480 352
WIRE -2416 400 -2480 400
WIRE 720 400 720 384
WIRE 11504 400 11504 368
WIRE 11568 400 11504 400
WIRE -2752 416 -2752 320
WIRE -2752 416 -2816 416
WIRE 144 416 144 352
WIRE 400 416 400 368
WIRE 400 416 144 416
WIRE -2368 432 -2368 416
WIRE -2272 432 -2272 368
WIRE -2272 432 -2368 432
WIRE 640 432 512 432
WIRE -2864 448 -2928 448
WIRE 816 448 816 112
WIRE 1072 448 1072 384
WIRE 1072 448 816 448
WIRE 11504 448 11504 400
WIRE -2608 464 -2816 464
WIRE -2368 464 -2368 432
WIRE 144 464 144 416
WIRE 144 464 48 464
WIRE 240 464 144 464
WIRE 400 464 400 416
WIRE 464 464 400 464
WIRE 7312 464 7312 352
WIRE -2608 480 -2608 464
WIRE 48 480 48 464
WIRE 240 480 240 464
WIRE 3728 480 3728 304
WIRE -2928 496 -2928 448
WIRE -2928 496 -2976 496
WIRE 11568 496 11568 400
WIRE 11568 496 11504 496
WIRE -2784 512 -2816 512
WIRE 512 512 512 480
WIRE 640 512 640 432
WIRE 640 512 512 512
WIRE 11056 512 11056 464
WIRE 11152 512 11056 512
WIRE 11248 512 11248 464
WIRE 11248 512 11152 512
WIRE 1072 528 1072 448
WIRE 2304 528 2304 352
WIRE 11456 528 11392 528
WIRE -2928 544 -2928 496
WIRE -2864 544 -2928 544
WIRE 11712 544 11504 544
WIRE 512 560 512 512
WIRE 11152 560 11152 512
WIRE 11392 560 11392 528
WIRE 11392 560 11152 560
WIRE 11712 560 11712 544
WIRE 1168 576 1072 576
WIRE 1488 576 1488 544
WIRE 1568 576 1488 576
WIRE -2816 592 -2816 560
WIRE -2784 592 -2784 512
WIRE -2784 592 -2816 592
WIRE -640 592 -720 592
WIRE -624 592 -624 512
WIRE -624 592 -640 592
WIRE -560 592 -624 592
WIRE -528 592 -560 592
WIRE 1488 592 1488 576
WIRE 11536 592 11504 592
WIRE -2816 624 -2816 592
WIRE -720 624 -720 592
WIRE -528 624 -528 592
WIRE 11152 624 11152 560
WIRE 11152 624 11056 624
WIRE 11248 624 11152 624
WIRE 11392 624 11392 560
WIRE 11456 624 11392 624
WIRE 1568 640 1568 576
WIRE 1568 640 1488 640
WIRE 11056 640 11056 624
WIRE 11248 640 11248 624
WIRE 3728 656 3728 576
WIRE 5024 656 5024 -656
WIRE 5024 656 3728 656
WIRE 7312 656 7312 560
WIRE 7328 656 7312 656
WIRE 8288 656 8288 -336
WIRE 8288 656 7328 656
WIRE -640 672 -640 592
WIRE -640 672 -720 672
WIRE -560 672 -560 592
WIRE -528 672 -560 672
WIRE 48 672 48 576
WIRE 240 672 240 576
WIRE 1440 672 1376 672
WIRE 11504 672 11504 640
WIRE 11536 672 11536 592
WIRE 11536 672 11504 672